
     RDKit          3D

 60 90  0  0  0  0  0  0  0  0999 V2000
    0.0201   12.8230    3.2228 C   0  0  0  0  0  0  0  0  0  0  0  0
    0.4339   13.3678    4.4031 C   0  0  0  0  0  0  0  0  0  0  0  0
   -0.5792   14.1423    4.8881 C   0  0  0  0  0  0  0  0  0  0  0  0
   -1.6190   14.0761    4.0075 C   0  0  0  0  0  0  0  0  0  0  0  0
   -1.2487   13.2606    2.9783 C   0  0  0  0  0  0  0  0  0  0  0  0
   -1.6480   13.5678    1.6535 C   0  0  0  0  0  0  0  0  0  0  0  0
   -0.7667   13.4053    0.6018 C   0  0  0  0  0  0  0  0  0  0  0  0
    0.5469   12.9521    0.8550 C   0  0  0  0  0  0  0  0  0  0  0  0
    0.9367   12.6762    2.1515 C   0  0  0  0  0  0  0  0  0  0  0  0
    2.2552   13.0609    2.3015 C   0  0  0  0  0  0  0  0  0  0  0  0
    2.6836   13.6250    3.5236 C   0  0  0  0  0  0  0  0  0  0  0  0
    1.7796   13.7862    4.5560 C   0  0  0  0  0  0  0  0  0  0  0  0
    2.0751   14.9644    5.2143 C   0  0  0  0  0  0  0  0  0  0  0  0
    1.0263   15.7663    5.7163 C   0  0  0  0  0  0  0  0  0  0  0  0
   -0.2842   15.3638    5.5439 C   0  0  0  0  0  0  0  0  0  0  0  0
   -1.0580   16.4853    5.3147 C   0  0  0  0  0  0  0  0  0  0  0  0
   -2.1347   16.4166    4.4030 C   0  0  0  0  0  0  0  0  0  0  0  0
   -2.4025   15.2289    3.7500 C   0  0  0  0  0  0  0  0  0  0  0  0
   -2.8143   15.5216    2.4641 C   0  0  0  0  0  0  0  0  0  0  0  0
   -2.4309   14.6775    1.3984 C   0  0  0  0  0  0  0  0  0  0  0  0
   -1.9753   15.3007    0.1171 C   0  0  0  0  0  0  0  0  0  0  0  0
   -0.9645   14.5280   -0.3668 C   0  0  0  0  0  0  0  0  0  0  0  0
    0.1834   15.1524   -1.0574 C   0  0  0  0  0  0  0  0  0  0  0  0
    1.4493   14.7157   -0.8134 C   0  0  0  0  0  0  0  0  0  0  0  0
    1.6843   13.6141    0.1437 C   0  0  0  0  0  0  0  0  0  0  0  0
    2.7219   13.6803    1.0223 C   0  0  0  0  0  0  0  0  0  0  0  0
    3.6203   14.8539    1.0250 C   0  0  0  0  0  0  0  0  0  0  0  0
    4.0331   15.3975    2.2026 C   0  0  0  0  0  0  0  0  0  0  0  0
    3.5857   14.8178    3.4864 C   0  0  0  0  0  0  0  0  0  0  0  0
    3.2161   15.6313    4.5133 C   0  0  0  0  0  0  0  0  0  0  0  0
    3.2599   17.0998    4.3512 C   0  0  0  0  0  0  0  0  0  0  0  0
    2.2491   17.8726    4.8352 C   0  0  0  0  0  0  0  0  0  0  0  0
    1.1011   17.2482    5.5257 C   0  0  0  0  0  0  0  0  0  0  0  0
   -0.1648   17.6849    5.2818 C   0  0  0  0  0  0  0  0  0  0  0  0
   -0.3998   18.7863    4.3247 C   0  0  0  0  0  0  0  0  0  0  0  0
   -1.4374   18.7202    3.4460 C   0  0  0  0  0  0  0  0  0  0  0  0
   -2.3357   17.5466    3.4434 C   0  0  0  0  0  0  0  0  0  0  0  0
   -2.7486   17.0029    2.2657 C   0  0  0  0  0  0  0  0  0  0  0  0
   -2.3012   17.5826    0.9819 C   0  0  0  0  0  0  0  0  0  0  0  0
   -1.9317   16.7691   -0.0451 C   0  0  0  0  0  0  0  0  0  0  0  0
   -0.7906   17.4361   -0.7460 C   0  0  0  0  0  0  0  0  0  0  0  0
    0.2583   16.6343   -1.2480 C   0  0  0  0  0  0  0  0  0  0  0  0
    1.5687   17.0367   -1.0756 C   0  0  0  0  0  0  0  0  0  0  0  0
    2.3425   15.9153   -0.8463 C   0  0  0  0  0  0  0  0  0  0  0  0
    3.4192   15.9839    0.0654 C   0  0  0  0  0  0  0  0  0  0  0  0
    3.6870   17.1717    0.7184 C   0  0  0  0  0  0  0  0  0  0  0  0
    4.0989   16.8789    2.0043 C   0  0  0  0  0  0  0  0  0  0  0  0
    3.7154   17.7231    3.0699 C   0  0  0  0  0  0  0  0  0  0  0  0
    2.9325   18.8326    2.8149 C   0  0  0  0  0  0  0  0  0  0  0  0
    2.0512   18.9953    3.8665 C   0  0  0  0  0  0  0  0  0  0  0  0
    0.7375   19.4484    3.6133 C   0  0  0  0  0  0  0  0  0  0  0  0
    0.3479   19.7243    2.3168 C   0  0  0  0  0  0  0  0  0  0  0  0
   -0.9706   19.3396    2.1667 C   0  0  0  0  0  0  0  0  0  0  0  0
   -1.3991   18.7754    0.9447 C   0  0  0  0  0  0  0  0  0  0  0  0
   -0.4950   18.6144   -0.0877 C   0  0  0  0  0  0  0  0  0  0  0  0
    0.8506   19.0326    0.0652 C   0  0  0  0  0  0  0  0  0  0  0  0
    1.8637   18.2582   -0.4198 C   0  0  0  0  0  0  0  0  0  0  0  0
    2.9036   18.3245    0.4608 C   0  0  0  0  0  0  0  0  0  0  0  0
    2.5332   19.1398    1.4900 C   0  0  0  0  0  0  0  0  0  0  0  0
    1.2644   19.5775    1.2455 C   0  0  0  0  0  0  0  0  0  0  0  0
  1  2  1  0
  1  5  2  0
  1  9  1  0
  2  3  1  0
  2 12  2  0
  3  4  2  0
  3 15  1  0
  4  5  1  0
  4 18  1  0
  5  6  1  0
  6  7  2  0
  6 20  1  0
  7  8  1  0
  7 22  1  0
  8  9  2  0
  8 25  1  0
  9 10  1  0
 10 11  2  0
 10 26  1  0
 11 12  1  0
 11 29  1  0
 12 13  1  0
 13 14  2  0
 13 30  1  0
 14 15  1  0
 14 33  1  0
 15 16  2  0
 16 17  1  0
 16 34  1  0
 17 18  2  0
 17 37  1  0
 18 19  1  0
 19 20  2  0
 19 38  1  0
 20 21  1  0
 21 22  2  0
 21 40  1  0
 22 23  1  0
 23 24  2  0
 23 42  1  0
 24 25  1  0
 24 44  1  0
 25 26  2  0
 26 27  1  0
 27 28  2  0
 27 45  1  0
 28 29  1  0
 28 47  1  0
 29 30  2  0
 30 31  1  0
 31 32  2  0
 31 48  1  0
 32 33  1  0
 32 50  1  0
 33 34  2  0
 34 35  1  0
 35 36  2  0
 35 51  1  0
 36 37  1  0
 36 53  1  0
 37 38  2  0
 38 39  1  0
 39 40  2  0
 39 54  1  0
 40 41  1  0
 41 42  2  0
 41 55  1  0
 42 43  1  0
 43 44  2  0
 43 57  1  0
 44 45  1  0
 45 46  2  0
 46 47  1  0
 46 58  1  0
 47 48  2  0
 48 49  1  0
 49 50  2  0
 49 59  1  0
 50 51  1  0
 51 52  2  0
 52 53  1  0
 52 60  1  0
 53 54  2  0
 54 55  1  0
 55 56  2  0
 56 57  1  0
 56 60  1  0
 57 58  2  0
 58 59  1  0
 59 60  2  0
M  END
>  <minimizedAffinity>  
-7.47523

$$$$
